
#======================================================================
# CRYSTAL DATA
#----------------------------------------------------------------------
data_VESTA_phase_1

_chemical_name_common                  'PDB File'
_cell_length_a                         25.832001
_cell_length_b                         25.832001
_cell_length_c                         25.832001
_cell_angle_alpha                      90.000000
_cell_angle_beta                       90.000000
_cell_angle_gamma                      90.000000
_cell_volume                           17237.494197
_space_group_name_H-M_alt              'P 1'
_space_group_IT_number                 1

loop_
_space_group_symop_operation_xyz
   'x, y, z'

loop_
   _atom_site_label
   _atom_site_occupancy
   _atom_site_fract_x
   _atom_site_fract_y
   _atom_site_fract_z
   _atom_site_adp_type
   _atom_site_U_iso_or_equiv
   _atom_site_type_symbol
   Zn1        1.0     0.293396     0.206604     0.206604    Uiso  ? Zn
   Zn1        1.0     0.706604     0.793396     0.793396    Uiso  ? Zn
   Zn1        1.0     0.706604     0.793396     0.206604    Uiso  ? Zn
   Zn1        1.0     0.293396     0.206604     0.793396    Uiso  ? Zn
   Zn1        1.0     0.706604     0.206604     0.793396    Uiso  ? Zn
   Zn1        1.0     0.293396     0.793396     0.206604    Uiso  ? Zn
   Zn1        1.0     0.293396     0.793396     0.793396    Uiso  ? Zn
   Zn1        1.0     0.706604     0.206604     0.206604    Uiso  ? Zn
   Zn1        1.0     0.206604     0.293396     0.206604    Uiso  ? Zn
   Zn1        1.0     0.793396     0.706604     0.793396    Uiso  ? Zn
   Zn1        1.0     0.206604     0.706604     0.793396    Uiso  ? Zn
   Zn1        1.0     0.793396     0.293396     0.206604    Uiso  ? Zn
   Zn1        1.0     0.793396     0.706604     0.206604    Uiso  ? Zn
   Zn1        1.0     0.206604     0.293396     0.793396    Uiso  ? Zn
   Zn1        1.0     0.793396     0.293396     0.793396    Uiso  ? Zn
   Zn1        1.0     0.206604     0.706604     0.206604    Uiso  ? Zn
   Zn1        1.0     0.206604     0.206604     0.293396    Uiso  ? Zn
   Zn1        1.0     0.793396     0.793396     0.706604    Uiso  ? Zn
   Zn1        1.0     0.793396     0.206604     0.706604    Uiso  ? Zn
   Zn1        1.0     0.206604     0.793396     0.293396    Uiso  ? Zn
   Zn1        1.0     0.206604     0.793396     0.706604    Uiso  ? Zn
   Zn1        1.0     0.793396     0.206604     0.293396    Uiso  ? Zn
   Zn1        1.0     0.793396     0.793396     0.293396    Uiso  ? Zn
   Zn1        1.0     0.206604     0.206604     0.706604    Uiso  ? Zn
   Zn1        1.0     0.293396     0.706604     0.706604    Uiso  ? Zn
   Zn1        1.0     0.706604     0.293396     0.293396    Uiso  ? Zn
   Zn1        1.0     0.706604     0.293396     0.706604    Uiso  ? Zn
   Zn1        1.0     0.293396     0.706604     0.293396    Uiso  ? Zn
   Zn1        1.0     0.706604     0.706604     0.293396    Uiso  ? Zn
   Zn1        1.0     0.293396     0.293396     0.706604    Uiso  ? Zn
   Zn1        1.0     0.293396     0.293396     0.293396    Uiso  ? Zn
   Zn1        1.0     0.706604     0.706604     0.706604    Uiso  ? Zn
   O1         1.0     0.250000     0.250000     0.250000    Uiso  ? O
   O1         1.0     0.750000     0.750000     0.750000    Uiso  ? O
   O1         1.0     0.750000     0.750000     0.250000    Uiso  ? O
   O1         1.0     0.250000     0.250000     0.750000    Uiso  ? O
   O1         1.0     0.750000     0.250000     0.750000    Uiso  ? O
   O1         1.0     0.250000     0.750000     0.250000    Uiso  ? O
   O1         1.0     0.250000     0.750000     0.750000    Uiso  ? O
   O1         1.0     0.750000     0.250000     0.250000    Uiso  ? O
   O2         1.0     0.281898     0.218102     0.133981    Uiso  ? O
   O2         1.0     0.718102     0.781898     0.866019    Uiso  ? O
   O2         1.0     0.718102     0.781898     0.133981    Uiso  ? O
   O2         1.0     0.281898     0.218102     0.866019    Uiso  ? O
   O2         1.0     0.718102     0.218102     0.866019    Uiso  ? O
   O2         1.0     0.281898     0.781898     0.133981    Uiso  ? O
   O2         1.0     0.281898     0.781898     0.866019    Uiso  ? O
   O2         1.0     0.718102     0.218102     0.133981    Uiso  ? O
   O2         1.0     0.133981     0.281898     0.218102    Uiso  ? O
   O2         1.0     0.866019     0.718102     0.781898    Uiso  ? O
   O2         1.0     0.133981     0.718102     0.781898    Uiso  ? O
   O2         1.0     0.866019     0.281898     0.218102    Uiso  ? O
   O2         1.0     0.866019     0.718102     0.218102    Uiso  ? O
   O2         1.0     0.133981     0.281898     0.781898    Uiso  ? O
   O2         1.0     0.866019     0.281898     0.781898    Uiso  ? O
   O2         1.0     0.133981     0.718102     0.218102    Uiso  ? O
   O2         1.0     0.218102     0.133981     0.281898    Uiso  ? O
   O2         1.0     0.781898     0.866019     0.718102    Uiso  ? O
   O2         1.0     0.781898     0.133981     0.718102    Uiso  ? O
   O2         1.0     0.218102     0.866019     0.281898    Uiso  ? O
   O2         1.0     0.218102     0.866019     0.718102    Uiso  ? O
   O2         1.0     0.781898     0.133981     0.281898    Uiso  ? O
   O2         1.0     0.781898     0.866019     0.281898    Uiso  ? O
   O2         1.0     0.218102     0.133981     0.718102    Uiso  ? O
   O2         1.0     0.218102     0.281898     0.866019    Uiso  ? O
   O2         1.0     0.781898     0.718102     0.133981    Uiso  ? O
   O2         1.0     0.781898     0.718102     0.866019    Uiso  ? O
   O2         1.0     0.218102     0.281898     0.133981    Uiso  ? O
   O2         1.0     0.218102     0.718102     0.133981    Uiso  ? O
   O2         1.0     0.781898     0.281898     0.866019    Uiso  ? O
   O2         1.0     0.781898     0.281898     0.133981    Uiso  ? O
   O2         1.0     0.218102     0.718102     0.866019    Uiso  ? O
   O2         1.0     0.281898     0.133981     0.781898    Uiso  ? O
   O2         1.0     0.718102     0.866019     0.218102    Uiso  ? O
   O2         1.0     0.718102     0.133981     0.218102    Uiso  ? O
   O2         1.0     0.281898     0.866019     0.781898    Uiso  ? O
   O2         1.0     0.718102     0.866019     0.781898    Uiso  ? O
   O2         1.0     0.281898     0.133981     0.218102    Uiso  ? O
   O2         1.0     0.281898     0.866019     0.218102    Uiso  ? O
   O2         1.0     0.718102     0.133981     0.781898    Uiso  ? O
   O2         1.0     0.133981     0.218102     0.718102    Uiso  ? O
   O2         1.0     0.866019     0.781898     0.281898    Uiso  ? O
   O2         1.0     0.133981     0.781898     0.281898    Uiso  ? O
   O2         1.0     0.866019     0.218102     0.718102    Uiso  ? O
   O2         1.0     0.866019     0.218102     0.281898    Uiso  ? O
   O2         1.0     0.133981     0.781898     0.718102    Uiso  ? O
   O2         1.0     0.866019     0.781898     0.718102    Uiso  ? O
   O2         1.0     0.133981     0.218102     0.281898    Uiso  ? O
   O2         1.0     0.281898     0.718102     0.633981    Uiso  ? O
   O2         1.0     0.718102     0.281898     0.366019    Uiso  ? O
   O2         1.0     0.718102     0.281898     0.633981    Uiso  ? O
   O2         1.0     0.281898     0.718102     0.366019    Uiso  ? O
   O2         1.0     0.718102     0.718102     0.366019    Uiso  ? O
   O2         1.0     0.281898     0.281898     0.633981    Uiso  ? O
   O2         1.0     0.281898     0.281898     0.366019    Uiso  ? O
   O2         1.0     0.718102     0.718102     0.633981    Uiso  ? O
   O2         1.0     0.218102     0.633981     0.781898    Uiso  ? O
   O2         1.0     0.781898     0.366019     0.218102    Uiso  ? O
   O2         1.0     0.781898     0.633981     0.218102    Uiso  ? O
   O2         1.0     0.218102     0.366019     0.781898    Uiso  ? O
   O2         1.0     0.218102     0.366019     0.218102    Uiso  ? O
   O2         1.0     0.781898     0.633981     0.781898    Uiso  ? O
   O2         1.0     0.781898     0.366019     0.781898    Uiso  ? O
   O2         1.0     0.218102     0.633981     0.218102    Uiso  ? O
   O2         1.0     0.218102     0.781898     0.366019    Uiso  ? O
   O2         1.0     0.781898     0.218102     0.633981    Uiso  ? O
   O2         1.0     0.781898     0.218102     0.366019    Uiso  ? O
   O2         1.0     0.218102     0.781898     0.633981    Uiso  ? O
   O2         1.0     0.218102     0.218102     0.633981    Uiso  ? O
   O2         1.0     0.781898     0.781898     0.366019    Uiso  ? O
   O2         1.0     0.781898     0.781898     0.633981    Uiso  ? O
   O2         1.0     0.218102     0.218102     0.366019    Uiso  ? O
   O2         1.0     0.281898     0.633981     0.281898    Uiso  ? O
   O2         1.0     0.718102     0.366019     0.718102    Uiso  ? O
   O2         1.0     0.718102     0.633981     0.718102    Uiso  ? O
   O2         1.0     0.281898     0.366019     0.281898    Uiso  ? O
   O2         1.0     0.718102     0.366019     0.281898    Uiso  ? O
   O2         1.0     0.281898     0.633981     0.718102    Uiso  ? O
   O2         1.0     0.281898     0.366019     0.718102    Uiso  ? O
   O2         1.0     0.718102     0.633981     0.281898    Uiso  ? O
   O2         1.0     0.633981     0.281898     0.718102    Uiso  ? O
   O2         1.0     0.366019     0.718102     0.281898    Uiso  ? O
   O2         1.0     0.633981     0.718102     0.281898    Uiso  ? O
   O2         1.0     0.366019     0.281898     0.718102    Uiso  ? O
   O2         1.0     0.366019     0.718102     0.718102    Uiso  ? O
   O2         1.0     0.633981     0.281898     0.281898    Uiso  ? O
   O2         1.0     0.366019     0.281898     0.281898    Uiso  ? O
   O2         1.0     0.633981     0.718102     0.718102    Uiso  ? O
   O2         1.0     0.633981     0.218102     0.218102    Uiso  ? O
   O2         1.0     0.366019     0.781898     0.781898    Uiso  ? O
   O2         1.0     0.633981     0.781898     0.781898    Uiso  ? O
   O2         1.0     0.366019     0.218102     0.218102    Uiso  ? O
   O2         1.0     0.366019     0.218102     0.781898    Uiso  ? O
   O2         1.0     0.633981     0.781898     0.218102    Uiso  ? O
   O2         1.0     0.366019     0.781898     0.218102    Uiso  ? O
   O2         1.0     0.633981     0.218102     0.781898    Uiso  ? O
   C1         1.0     0.250000     0.250000     0.111296    Uiso  ? C
   C1         1.0     0.750000     0.750000     0.888704    Uiso  ? C
   C1         1.0     0.750000     0.750000     0.111296    Uiso  ? C
   C1         1.0     0.250000     0.250000     0.888704    Uiso  ? C
   C1         1.0     0.750000     0.250000     0.888704    Uiso  ? C
   C1         1.0     0.250000     0.750000     0.111296    Uiso  ? C
   C1         1.0     0.250000     0.750000     0.888704    Uiso  ? C
   C1         1.0     0.750000     0.250000     0.111296    Uiso  ? C
   C1         1.0     0.111296     0.250000     0.250000    Uiso  ? C
   C1         1.0     0.888704     0.750000     0.750000    Uiso  ? C
   C1         1.0     0.111296     0.750000     0.750000    Uiso  ? C
   C1         1.0     0.888704     0.250000     0.250000    Uiso  ? C
   C1         1.0     0.888704     0.750000     0.250000    Uiso  ? C
   C1         1.0     0.111296     0.250000     0.750000    Uiso  ? C
   C1         1.0     0.888704     0.250000     0.750000    Uiso  ? C
   C1         1.0     0.111296     0.750000     0.250000    Uiso  ? C
   C1         1.0     0.250000     0.111296     0.250000    Uiso  ? C
   C1         1.0     0.750000     0.888704     0.750000    Uiso  ? C
   C1         1.0     0.750000     0.111296     0.750000    Uiso  ? C
   C1         1.0     0.250000     0.888704     0.250000    Uiso  ? C
   C1         1.0     0.250000     0.888704     0.750000    Uiso  ? C
   C1         1.0     0.750000     0.111296     0.250000    Uiso  ? C
   C1         1.0     0.750000     0.888704     0.250000    Uiso  ? C
   C1         1.0     0.250000     0.111296     0.750000    Uiso  ? C
   C1         1.0     0.250000     0.750000     0.611296    Uiso  ? C
   C1         1.0     0.750000     0.250000     0.388704    Uiso  ? C
   C1         1.0     0.750000     0.250000     0.611296    Uiso  ? C
   C1         1.0     0.250000     0.750000     0.388704    Uiso  ? C
   C1         1.0     0.750000     0.750000     0.388704    Uiso  ? C
   C1         1.0     0.250000     0.250000     0.611296    Uiso  ? C
   C1         1.0     0.250000     0.250000     0.388704    Uiso  ? C
   C1         1.0     0.750000     0.750000     0.611296    Uiso  ? C
   C1         1.0     0.250000     0.611296     0.750000    Uiso  ? C
   C1         1.0     0.750000     0.388704     0.250000    Uiso  ? C
   C1         1.0     0.750000     0.611296     0.250000    Uiso  ? C
   C1         1.0     0.250000     0.388704     0.750000    Uiso  ? C
   C1         1.0     0.250000     0.388704     0.250000    Uiso  ? C
   C1         1.0     0.750000     0.611296     0.750000    Uiso  ? C
   C1         1.0     0.750000     0.388704     0.750000    Uiso  ? C
   C1         1.0     0.250000     0.611296     0.250000    Uiso  ? C
   C1         1.0     0.611296     0.250000     0.750000    Uiso  ? C
   C1         1.0     0.388704     0.750000     0.250000    Uiso  ? C
   C1         1.0     0.611296     0.750000     0.250000    Uiso  ? C
   C1         1.0     0.388704     0.250000     0.750000    Uiso  ? C
   C1         1.0     0.388704     0.750000     0.750000    Uiso  ? C
   C1         1.0     0.611296     0.250000     0.250000    Uiso  ? C
   C1         1.0     0.388704     0.250000     0.250000    Uiso  ? C
   C1         1.0     0.611296     0.750000     0.750000    Uiso  ? C
   C2         1.0     0.250000     0.250000     0.053809    Uiso  ? C
   C2         1.0     0.750000     0.750000     0.946191    Uiso  ? C
   C2         1.0     0.750000     0.750000     0.053809    Uiso  ? C
   C2         1.0     0.250000     0.250000     0.946191    Uiso  ? C
   C2         1.0     0.750000     0.250000     0.946191    Uiso  ? C
   C2         1.0     0.250000     0.750000     0.053809    Uiso  ? C
   C2         1.0     0.250000     0.750000     0.946191    Uiso  ? C
   C2         1.0     0.750000     0.250000     0.053809    Uiso  ? C
   C2         1.0     0.053809     0.250000     0.250000    Uiso  ? C
   C2         1.0     0.946191     0.750000     0.750000    Uiso  ? C
   C2         1.0     0.053809     0.750000     0.750000    Uiso  ? C
   C2         1.0     0.946191     0.250000     0.250000    Uiso  ? C
   C2         1.0     0.946191     0.750000     0.250000    Uiso  ? C
   C2         1.0     0.053809     0.250000     0.750000    Uiso  ? C
   C2         1.0     0.946191     0.250000     0.750000    Uiso  ? C
   C2         1.0     0.053809     0.750000     0.250000    Uiso  ? C
   C2         1.0     0.250000     0.053809     0.250000    Uiso  ? C
   C2         1.0     0.750000     0.946191     0.750000    Uiso  ? C
   C2         1.0     0.750000     0.053809     0.750000    Uiso  ? C
   C2         1.0     0.250000     0.946191     0.250000    Uiso  ? C
   C2         1.0     0.250000     0.946191     0.750000    Uiso  ? C
   C2         1.0     0.750000     0.053809     0.250000    Uiso  ? C
   C2         1.0     0.750000     0.946191     0.250000    Uiso  ? C
   C2         1.0     0.250000     0.053809     0.750000    Uiso  ? C
   C2         1.0     0.250000     0.750000     0.553809    Uiso  ? C
   C2         1.0     0.750000     0.250000     0.446191    Uiso  ? C
   C2         1.0     0.750000     0.250000     0.553809    Uiso  ? C
   C2         1.0     0.250000     0.750000     0.446191    Uiso  ? C
   C2         1.0     0.750000     0.750000     0.446191    Uiso  ? C
   C2         1.0     0.250000     0.250000     0.553809    Uiso  ? C
   C2         1.0     0.250000     0.250000     0.446191    Uiso  ? C
   C2         1.0     0.750000     0.750000     0.553809    Uiso  ? C
   C2         1.0     0.250000     0.553809     0.750000    Uiso  ? C
   C2         1.0     0.750000     0.446191     0.250000    Uiso  ? C
   C2         1.0     0.750000     0.553809     0.250000    Uiso  ? C
   C2         1.0     0.250000     0.446191     0.750000    Uiso  ? C
   C2         1.0     0.250000     0.446191     0.250000    Uiso  ? C
   C2         1.0     0.750000     0.553809     0.750000    Uiso  ? C
   C2         1.0     0.750000     0.446191     0.750000    Uiso  ? C
   C2         1.0     0.250000     0.553809     0.250000    Uiso  ? C
   C2         1.0     0.553809     0.250000     0.750000    Uiso  ? C
   C2         1.0     0.446191     0.750000     0.250000    Uiso  ? C
   C2         1.0     0.553809     0.750000     0.250000    Uiso  ? C
   C2         1.0     0.446191     0.250000     0.750000    Uiso  ? C
   C2         1.0     0.446191     0.750000     0.750000    Uiso  ? C
   C2         1.0     0.553809     0.250000     0.250000    Uiso  ? C
   C2         1.0     0.446191     0.250000     0.250000    Uiso  ? C
   C2         1.0     0.553809     0.750000     0.750000    Uiso  ? C
   C3         1.0     0.282905     0.217095     0.026905    Uiso  ? C
   C3         1.0     0.717095     0.782905     0.973095    Uiso  ? C
   C3         1.0     0.717095     0.782905     0.026905    Uiso  ? C
   C3         1.0     0.282905     0.217095     0.973095    Uiso  ? C
   C3         1.0     0.717095     0.217095     0.973095    Uiso  ? C
   C3         1.0     0.282905     0.782905     0.026905    Uiso  ? C
   C3         1.0     0.282905     0.782905     0.973095    Uiso  ? C
   C3         1.0     0.717095     0.217095     0.026905    Uiso  ? C
   C3         1.0     0.026905     0.282905     0.217095    Uiso  ? C
   C3         1.0     0.973095     0.717095     0.782905    Uiso  ? C
   C3         1.0     0.026905     0.717095     0.782905    Uiso  ? C
   C3         1.0     0.973095     0.282905     0.217095    Uiso  ? C
   C3         1.0     0.973095     0.717095     0.217095    Uiso  ? C
   C3         1.0     0.026905     0.282905     0.782905    Uiso  ? C
   C3         1.0     0.973095     0.282905     0.782905    Uiso  ? C
   C3         1.0     0.026905     0.717095     0.217095    Uiso  ? C
   C3         1.0     0.217095     0.026905     0.282905    Uiso  ? C
   C3         1.0     0.782905     0.973095     0.717095    Uiso  ? C
   C3         1.0     0.782905     0.026905     0.717095    Uiso  ? C
   C3         1.0     0.217095     0.973095     0.282905    Uiso  ? C
   C3         1.0     0.217095     0.973095     0.717095    Uiso  ? C
   C3         1.0     0.782905     0.026905     0.282905    Uiso  ? C
   C3         1.0     0.782905     0.973095     0.282905    Uiso  ? C
   C3         1.0     0.217095     0.026905     0.717095    Uiso  ? C
   C3         1.0     0.217095     0.282905     0.973095    Uiso  ? C
   C3         1.0     0.782905     0.717095     0.026905    Uiso  ? C
   C3         1.0     0.782905     0.717095     0.973095    Uiso  ? C
   C3         1.0     0.217095     0.282905     0.026905    Uiso  ? C
   C3         1.0     0.217095     0.717095     0.026905    Uiso  ? C
   C3         1.0     0.782905     0.282905     0.973095    Uiso  ? C
   C3         1.0     0.782905     0.282905     0.026905    Uiso  ? C
   C3         1.0     0.217095     0.717095     0.973095    Uiso  ? C
   C3         1.0     0.282905     0.026905     0.782905    Uiso  ? C
   C3         1.0     0.717095     0.973095     0.217095    Uiso  ? C
   C3         1.0     0.717095     0.026905     0.217095    Uiso  ? C
   C3         1.0     0.282905     0.973095     0.782905    Uiso  ? C
   C3         1.0     0.717095     0.973095     0.782905    Uiso  ? C
   C3         1.0     0.282905     0.026905     0.217095    Uiso  ? C
   C3         1.0     0.282905     0.973095     0.217095    Uiso  ? C
   C3         1.0     0.717095     0.026905     0.782905    Uiso  ? C
   C3         1.0     0.026905     0.217095     0.717095    Uiso  ? C
   C3         1.0     0.973095     0.782905     0.282905    Uiso  ? C
   C3         1.0     0.026905     0.782905     0.282905    Uiso  ? C
   C3         1.0     0.973095     0.217095     0.717095    Uiso  ? C
   C3         1.0     0.973095     0.217095     0.282905    Uiso  ? C
   C3         1.0     0.026905     0.782905     0.717095    Uiso  ? C
   C3         1.0     0.973095     0.782905     0.717095    Uiso  ? C
   C3         1.0     0.026905     0.217095     0.282905    Uiso  ? C
   C3         1.0     0.282905     0.717095     0.526905    Uiso  ? C
   C3         1.0     0.717095     0.282905     0.473095    Uiso  ? C
   C3         1.0     0.717095     0.282905     0.526905    Uiso  ? C
   C3         1.0     0.282905     0.717095     0.473095    Uiso  ? C
   C3         1.0     0.717095     0.717095     0.473095    Uiso  ? C
   C3         1.0     0.282905     0.282905     0.526905    Uiso  ? C
   C3         1.0     0.282905     0.282905     0.473095    Uiso  ? C
   C3         1.0     0.717095     0.717095     0.526905    Uiso  ? C
   C3         1.0     0.217095     0.526905     0.782905    Uiso  ? C
   C3         1.0     0.782905     0.473095     0.217095    Uiso  ? C
   C3         1.0     0.782905     0.526905     0.217095    Uiso  ? C
   C3         1.0     0.217095     0.473095     0.782905    Uiso  ? C
   C3         1.0     0.217095     0.473095     0.217095    Uiso  ? C
   C3         1.0     0.782905     0.526905     0.782905    Uiso  ? C
   C3         1.0     0.782905     0.473095     0.782905    Uiso  ? C
   C3         1.0     0.217095     0.526905     0.217095    Uiso  ? C
   C3         1.0     0.217095     0.782905     0.473095    Uiso  ? C
   C3         1.0     0.782905     0.217095     0.526905    Uiso  ? C
   C3         1.0     0.782905     0.217095     0.473095    Uiso  ? C
   C3         1.0     0.217095     0.782905     0.526905    Uiso  ? C
   C3         1.0     0.217095     0.217095     0.526905    Uiso  ? C
   C3         1.0     0.782905     0.782905     0.473095    Uiso  ? C
   C3         1.0     0.782905     0.782905     0.526905    Uiso  ? C
   C3         1.0     0.217095     0.217095     0.473095    Uiso  ? C
   C3         1.0     0.282905     0.526905     0.282905    Uiso  ? C
   C3         1.0     0.717095     0.473095     0.717095    Uiso  ? C
   C3         1.0     0.717095     0.526905     0.717095    Uiso  ? C
   C3         1.0     0.282905     0.473095     0.282905    Uiso  ? C
   C3         1.0     0.717095     0.473095     0.282905    Uiso  ? C
   C3         1.0     0.282905     0.526905     0.717095    Uiso  ? C
   C3         1.0     0.282905     0.473095     0.717095    Uiso  ? C
   C3         1.0     0.717095     0.526905     0.282905    Uiso  ? C
   C3         1.0     0.526905     0.282905     0.717095    Uiso  ? C
   C3         1.0     0.473095     0.717095     0.282905    Uiso  ? C
   C3         1.0     0.526905     0.717095     0.282905    Uiso  ? C
   C3         1.0     0.473095     0.282905     0.717095    Uiso  ? C
   C3         1.0     0.473095     0.717095     0.717095    Uiso  ? C
   C3         1.0     0.526905     0.282905     0.282905    Uiso  ? C
   C3         1.0     0.473095     0.282905     0.282905    Uiso  ? C
   C3         1.0     0.526905     0.717095     0.717095    Uiso  ? C
   C3         1.0     0.526905     0.217095     0.217095    Uiso  ? C
   C3         1.0     0.473095     0.782905     0.782905    Uiso  ? C
   C3         1.0     0.526905     0.782905     0.782905    Uiso  ? C
   C3         1.0     0.473095     0.217095     0.217095    Uiso  ? C
   C3         1.0     0.473095     0.217095     0.782905    Uiso  ? C
   C3         1.0     0.526905     0.782905     0.217095    Uiso  ? C
   C3         1.0     0.473095     0.782905     0.217095    Uiso  ? C
   C3         1.0     0.526905     0.217095     0.782905    Uiso  ? C
   H1         1.0     0.304893     0.195107     0.044789    Uiso  ? H
   H1         1.0     0.695107     0.804893     0.955211    Uiso  ? H
   H1         1.0     0.695107     0.804893     0.044789    Uiso  ? H
   H1         1.0     0.304893     0.195107     0.955211    Uiso  ? H
   H1         1.0     0.695107     0.195107     0.955211    Uiso  ? H
   H1         1.0     0.304893     0.804893     0.044789    Uiso  ? H
   H1         1.0     0.304893     0.804893     0.955211    Uiso  ? H
   H1         1.0     0.695107     0.195107     0.044789    Uiso  ? H
   H1         1.0     0.044789     0.304893     0.195107    Uiso  ? H
   H1         1.0     0.955211     0.695107     0.804893    Uiso  ? H
   H1         1.0     0.044789     0.695107     0.804893    Uiso  ? H
   H1         1.0     0.955211     0.304893     0.195107    Uiso  ? H
   H1         1.0     0.955211     0.695107     0.195107    Uiso  ? H
   H1         1.0     0.044789     0.304893     0.804893    Uiso  ? H
   H1         1.0     0.955211     0.304893     0.804893    Uiso  ? H
   H1         1.0     0.044789     0.695107     0.195107    Uiso  ? H
   H1         1.0     0.195107     0.044789     0.304893    Uiso  ? H
   H1         1.0     0.804893     0.955211     0.695107    Uiso  ? H
   H1         1.0     0.804893     0.044789     0.695107    Uiso  ? H
   H1         1.0     0.195107     0.955211     0.304893    Uiso  ? H
   H1         1.0     0.195107     0.955211     0.695107    Uiso  ? H
   H1         1.0     0.804893     0.044789     0.304893    Uiso  ? H
   H1         1.0     0.804893     0.955211     0.304893    Uiso  ? H
   H1         1.0     0.195107     0.044789     0.695107    Uiso  ? H
   H1         1.0     0.195107     0.304893     0.955211    Uiso  ? H
   H1         1.0     0.804893     0.695107     0.044789    Uiso  ? H
   H1         1.0     0.804893     0.695107     0.955211    Uiso  ? H
   H1         1.0     0.195107     0.304893     0.044789    Uiso  ? H
   H1         1.0     0.195107     0.695107     0.044789    Uiso  ? H
   H1         1.0     0.804893     0.304893     0.955211    Uiso  ? H
   H1         1.0     0.804893     0.304893     0.044789    Uiso  ? H
   H1         1.0     0.195107     0.695107     0.955211    Uiso  ? H
   H1         1.0     0.304893     0.044789     0.804893    Uiso  ? H
   H1         1.0     0.695107     0.955211     0.195107    Uiso  ? H
   H1         1.0     0.695107     0.044789     0.195107    Uiso  ? H
   H1         1.0     0.304893     0.955211     0.804893    Uiso  ? H
   H1         1.0     0.695107     0.955211     0.804893    Uiso  ? H
   H1         1.0     0.304893     0.044789     0.195107    Uiso  ? H
   H1         1.0     0.304893     0.955211     0.195107    Uiso  ? H
   H1         1.0     0.695107     0.044789     0.804893    Uiso  ? H
   H1         1.0     0.044789     0.195107     0.695107    Uiso  ? H
   H1         1.0     0.955211     0.804893     0.304893    Uiso  ? H
   H1         1.0     0.044789     0.804893     0.304893    Uiso  ? H
   H1         1.0     0.955211     0.195107     0.695107    Uiso  ? H
   H1         1.0     0.955211     0.195107     0.304893    Uiso  ? H
   H1         1.0     0.044789     0.804893     0.695107    Uiso  ? H
   H1         1.0     0.955211     0.804893     0.695107    Uiso  ? H
   H1         1.0     0.044789     0.195107     0.304893    Uiso  ? H
   H1         1.0     0.304893     0.695107     0.544789    Uiso  ? H
   H1         1.0     0.695107     0.304893     0.455211    Uiso  ? H
   H1         1.0     0.695107     0.304893     0.544789    Uiso  ? H
   H1         1.0     0.304893     0.695107     0.455211    Uiso  ? H
   H1         1.0     0.695107     0.695107     0.455211    Uiso  ? H
   H1         1.0     0.304893     0.304893     0.544789    Uiso  ? H
   H1         1.0     0.304893     0.304893     0.455211    Uiso  ? H
   H1         1.0     0.695107     0.695107     0.544789    Uiso  ? H
   H1         1.0     0.195107     0.544789     0.804893    Uiso  ? H
   H1         1.0     0.804893     0.455211     0.195107    Uiso  ? H
   H1         1.0     0.804893     0.544789     0.195107    Uiso  ? H
   H1         1.0     0.195107     0.455211     0.804893    Uiso  ? H
   H1         1.0     0.195107     0.455211     0.195107    Uiso  ? H
   H1         1.0     0.804893     0.544789     0.804893    Uiso  ? H
   H1         1.0     0.804893     0.455211     0.804893    Uiso  ? H
   H1         1.0     0.195107     0.544789     0.195107    Uiso  ? H
   H1         1.0     0.195107     0.804893     0.455211    Uiso  ? H
   H1         1.0     0.804893     0.195107     0.544789    Uiso  ? H
   H1         1.0     0.804893     0.195107     0.455211    Uiso  ? H
   H1         1.0     0.195107     0.804893     0.544789    Uiso  ? H
   H1         1.0     0.195107     0.195107     0.544789    Uiso  ? H
   H1         1.0     0.804893     0.804893     0.455211    Uiso  ? H
   H1         1.0     0.804893     0.804893     0.544789    Uiso  ? H
   H1         1.0     0.195107     0.195107     0.455211    Uiso  ? H
   H1         1.0     0.304893     0.544789     0.304893    Uiso  ? H
   H1         1.0     0.695107     0.455211     0.695107    Uiso  ? H
   H1         1.0     0.695107     0.544789     0.695107    Uiso  ? H
   H1         1.0     0.304893     0.455211     0.304893    Uiso  ? H
   H1         1.0     0.695107     0.455211     0.304893    Uiso  ? H
   H1         1.0     0.304893     0.544789     0.695107    Uiso  ? H
   H1         1.0     0.304893     0.455211     0.695107    Uiso  ? H
   H1         1.0     0.695107     0.544789     0.304893    Uiso  ? H
   H1         1.0     0.544789     0.304893     0.695107    Uiso  ? H
   H1         1.0     0.455211     0.695107     0.304893    Uiso  ? H
   H1         1.0     0.544789     0.695107     0.304893    Uiso  ? H
   H1         1.0     0.455211     0.304893     0.695107    Uiso  ? H
   H1         1.0     0.455211     0.695107     0.695107    Uiso  ? H
   H1         1.0     0.544789     0.304893     0.304893    Uiso  ? H
   H1         1.0     0.455211     0.304893     0.304893    Uiso  ? H
   H1         1.0     0.544789     0.695107     0.695107    Uiso  ? H
   H1         1.0     0.544789     0.195107     0.195107    Uiso  ? H
   H1         1.0     0.455211     0.804893     0.804893    Uiso  ? H
   H1         1.0     0.544789     0.804893     0.804893    Uiso  ? H
   H1         1.0     0.455211     0.195107     0.195107    Uiso  ? H
   H1         1.0     0.455211     0.195107     0.804893    Uiso  ? H
   H1         1.0     0.544789     0.804893     0.195107    Uiso  ? H
   H1         1.0     0.455211     0.804893     0.195107    Uiso  ? H
   H1         1.0     0.544789     0.195107     0.804893    Uiso  ? H
